ipss.test.plugin.core/testData/psse/v30/Mod_SixBus_2WPsXfr.raw
0,   100.00, 30, 0, 1,  60.00     / PSS(R)E 30 RAW created by Stephen  modifed by FM with branch 1-4 ID = 2 added 
PSS(R)E SAMPLE CASE
ALL DATA CATEGORIES WITH SEQUENCE DATA
  1,'3W_Gen_SW  ',  19.4000,3,     1,     1,   1,   6,1.00000,   0.0000,   1   
  3,'3W_Out     ', 230.0000,1,     1,     1,   1,   6,1.02443,  -4.0004,   1  
  4,'To_End_Par ', 230.0000,1,     1,     1,   1,   2,1.00844, -19.0880,   1 
  5,'Area_2_HV  ', 230.0000,1,     2,     2,   2,   2,1.00844, -19.0880,   2 
  6,'Area_2_LV  ', 19.4000,2,     2,     2,   2,   2,1.00844, -19.0880,    2 
 0 / END OF BUS DATA, BEGIN LOAD DATA   
  4,'1 ',1,   1,   1,   400.000,    50.000,     0.000,     0.000,     0.000,     0.000,   1  
 0 / END OF LOAD DATA, BEGIN GENERATOR DATA
  1,'1 ',  200,   30,   300,  -100.000,1.00000,     0,  100.000,   0.00760,   0.35430,   0.00000,   0.00000,1.00000,1,   92.0,  100.000,   1.000,   1,1   
  6,'1 ',  100,   20,   200,  -100.000,1.00000,     0,  100.000,   0.00760,   0.35430,   0.00000,   0.00000,1.00000,1,   92.0,  100.000,   1.000,   2,1   
 0 / END OF GENERATOR DATA, BEGIN BRANCH DATA
  4,  5,'1 ',   0.00000,   0.00800,   0.00000,    0.00,    0.00,    0.00,  0.00000,  0.00000,  0.00000,  0.00000,1,  70.00,   1,0.1639,   2,0.2459,   3,0.3279,   4,0.2623
  3,  4,'1 ',   0.00600,   0.05400,   0.09000,    0.00,    0.00,    0.00,  0.00000,  0.00000,  0.00000,  0.00000,1,  90.00,   2,0.2000,   3,0.3000,   4,0.4000,   5,0.1000
  3,  4,'2 ',   0.00600,   0.05400,   0.09000,    0.00,    0.00,    0.00,  0.00000,  0.00000,  0.00000,  0.00000,1,  90.00,   1,0.1333,   2,0.2000,   3,0.2667,   4,0.4000
  1,  4,'2 ',   0.00600,   0.05400,   0.09000,    0.00,    0.00,    0.00,  0.00000,  0.00000,  0.00000,  0.00000,1,  90.00,   1,0.1333,   2,0.2000,   3,0.2667,   4,0.4000
 0 / END OF BRANCH DATA, BEGIN TRANSFORMER DATA  
  1,  3,  0,'1 ',1,1,1,   0.00120,  -0.00420,2,'2WPsxfr2   ',1,   1,0.1238,   2,0.2477,   3,0.1548,   5,0.4737
   0.00020,   0.02500,  1000.00,   
1.01010, 19.4,   0.000,  1200.00,  1150.00,  1090.00, 1,   3002, 1.10020, 0.92000, 1.16000, 0.93000,  33, 0, 0.00013, 0.00016
1.05000, 230.000,  
  5,   6,     0,'T9',1,2,1,   0.00113,  -0.00052,2,'Area2XFR    ',1,   1,0.1905,   2,0.4643,   3,0.1667,   4,0.1786
   0.00160,   0.04800,   900.00
1.01591, 230.000,   30.000,   900.00,   850.00,   799.00, 2,      0, 1.05000, 0.97500,-175.000,-250.000,  12, 0, 0.00000, 0.00000
1.00000,  19.4
 0 / END OF TRANSFORMER DATA, BEGIN AREA DATA 
 0 / END OF AREA DATA, BEGIN TWO-TERMINAL DC DATA
 0 / END OF TWO-TERMINAL DC DATA, BEGIN VSC DC LINE DATA
 0 / END OF VSC DC LINE DATA, BEGIN SWITCHED SHUNT DATA   
 0 / END OF SWITCHED SHUNT DATA, BEGIN IMPEDANCE CORRECTION DATA
 0 / END OF IMPEDANCE CORRECTION DATA, BEGIN MULTI-TERMINAL DC DATA
 0 / END OF MULTI-TERMINAL DC DATA, BEGIN MULTI-SECTION LINE DATA  
 0 / END OF MULTI-SECTION LINE DATA, BEGIN ZONE DATA   
 0 / END OF ZONE DATA, BEGIN INTER-AREA TRANSFER DATA 
 0 / END OF INTER-AREA TRANSFER DATA, BEGIN OWNER DATA
   1,'OWNER 1     '
   2,'OWNER 2     '  
 0 / END OF OWNER DATA, BEGIN FACTS DEVICE DATA 
 0 / END OF FACTS DEVICE DATA
